9849 20
BOS	0.020	0.022	-0.019	-0.016	0.007	0.015	0.005	0.001	-0.018	0.011	-0.022	0.006	-0.004	-0.005	-0.017	-0.009	0.013	0.015	0.015	0.008
EOS	0.020	0.022	-0.019	-0.016	0.007	0.015	0.005	0.001	-0.018	0.011	-0.022	0.006	-0.004	-0.005	-0.017	-0.009	0.013	0.015	0.015	0.008
&NAME	0.512	-0.302	-0.919	-0.520	1.600	2.256	0.744	-0.567	2.193	0.602	-0.514	-0.948	-1.838	0.520	0.004	1.060	-1.482	-1.304	-1.251	1.220
,	-0.178	0.074	0.862	-0.592	0.211	-0.133	0.175	0.037	0.368	0.288	1.051	-0.997	-1.032	-0.510	0.011	0.633	-0.256	-0.995	0.243	0.960
.	0.521	0.439	0.970	-0.160	0.583	-1.884	-0.962	-0.181	0.510	0.248	1.267	-0.863	-0.436	-0.179	0.002	-0.274	0.779	-1.016	-0.780	0.333
OOL	-1.193	0.613	-0.148	-0.058	-0.744	0.988	2.132	-0.968	0.748	1.087	-2.141	0.900	-0.305	0.150	1.249	1.057	-0.048	2.047	0.561	-1.134
the	-0.122	-0.099	0.337	-1.039	-1.068	-1.572	-0.093	-1.590	-1.394	0.014	1.310	-1.125	0.175	-0.285	-1.443	1.556	0.942	-1.403	0.117	-1.410
to	1.991	-1.136	1.908	-0.536	-0.883	-1.846	-2.384	-0.092	-0.514	-0.905	1.267	-0.791	-0.146	-0.090	0.277	0.375	1.447	-2.133	-0.280	0.018
&NUM	-2.000	-1.402	-2.152	-1.347	0.972	1.022	3.354	-0.177	1.547	1.780	-0.279	-1.303	-1.567	2.075	-0.378	0.456	0.532	-1.883	-2.422	1.301
I	0.375	0.144	2.582	-1.559	0.367	-2.507	-3.361	-0.034	-1.136	-0.668	2.292	-2.938	-2.388	-1.898	-0.403	-1.434	0.615	-0.488	0.702	3.578
and	0.199	0.819	1.028	-0.877	-1.032	-0.633	-0.236	-0.736	0.004	-1.331	0.727	-1.470	-0.351	-0.466	0.042	0.823	1.106	-0.998	0.391	-1.624
you	2.847	-1.658	2.613	0.332	0.310	-2.764	-1.920	1.288	0.638	-1.455	1.400	-1.663	-1.165	0.788	0.604	-1.500	0.290	-2.191	-0.783	2.798
of	-0.920	0.752	-0.278	-0.031	-0.567	-1.238	0.886	-0.546	-0.830	0.426	0.884	-1.150	0.163	0.408	-0.672	1.471	-0.484	-1.890	0.893	-2.171
a	-1.237	1.189	0.547	-0.251	-0.665	-2.363	-1.936	-1.501	-0.028	-0.565	0.243	-1.420	-0.667	-0.468	-0.565	-0.494	1.097	-1.175	0.085	-1.202
!	0.994	0.284	0.153	1.753	1.465	-2.158	0.032	-0.787	3.902	-1.549	-0.905	-0.450	-1.413	-2.626	0.748	-2.853	-0.534	0.502	-0.545	3.336
:	0.328	-2.393	-0.855	-1.209	1.110	2.805	0.113	-1.402	2.446	2.725	-1.004	-1.152	-1.875	0.275	1.454	1.866	-1.852	-1.796	-1.780	4.174
)	-0.186	-1.191	0.637	-3.221	2.618	1.873	0.535	0.448	3.291	0.808	-0.202	-0.852	-1.003	1.668	0.273	0.848	0.200	-0.215	-0.840	0.200
(	-0.607	-1.309	0.206	-3.785	2.332	1.386	0.518	0.208	3.120	0.651	-0.542	-0.947	-0.842	1.470	0.065	0.875	0.051	-0.164	-1.352	0.250
in	-0.319	0.208	0.142	-1.405	-0.249	-1.736	-0.507	-1.139	-1.909	-0.632	0.857	-1.267	-0.065	-0.665	-0.316	1.128	0.509	-0.921	0.198	-1.675
is	0.850	0.494	-0.186	-1.049	-0.006	-2.286	-1.541	-2.019	0.774	1.348	2.104	-0.507	0.419	-0.001	-1.130	-0.288	0.182	-0.436	0.569	-0.732
for	-0.353	-0.612	-0.005	0.125	0.103	-1.737	-2.003	-0.803	-0.309	-0.995	1.089	-1.260	-1.171	0.786	1.285	-0.412	0.977	-2.657	-0.909	-1.153
that	-0.233	-0.074	2.372	-0.602	-1.550	-2.643	-2.408	-0.381	-1.696	0.235	2.752	0.116	-1.159	0.121	-1.163	-0.418	0.474	-0.720	1.809	0.315
it	0.767	0.321	2.259	-0.475	-0.611	-2.576	-3.162	0.019	0.991	0.245	1.625	-0.862	-0.709	-0.073	-1.242	-1.400	1.614	-0.052	1.029	2.034
?	3.194	-0.779	1.037	1.430	2.003	-2.150	-0.449	-1.516	1.038	-0.205	0.127	-3.288	-2.176	2.496	-1.302	-2.230	-0.932	1.088	1.027	4.777
"	1.251	1.225	3.251	0.134	1.681	1.532	0.283	-2.199	1.214	4.509	2.188	-0.071	-2.118	-1.494	-1.728	1.497	-0.603	-0.423	1.029	3.083
be	1.318	-0.932	1.483	-1.005	0.107	-1.094	-2.996	0.228	-0.693	0.445	2.164	-0.711	-0.524	0.552	-0.183	0.173	2.904	-3.124	0.236	-0.961
have	-0.197	-0.052	0.660	-0.466	-0.271	-2.952	-2.487	0.818	-0.561	-1.199	1.985	-0.704	-1.403	0.116	-0.740	-1.651	0.226	-1.923	0.337	1.434
on	0.241	-1.397	-0.956	-0.432	0.046	-1.066	-0.533	-0.922	-0.331	-2.365	1.569	-2.136	-0.357	-0.289	-1.145	1.709	0.959	-0.853	-0.917	0.098
-	0.976	-0.983	-0.095	-0.105	1.713	0.965	-0.801	-1.263	3.469	-0.012	0.406	-0.932	-1.623	-0.220	1.017	-0.277	-0.710	0.543	-0.505	0.766
's	0.638	1.340	0.416	-0.169	1.232	-0.595	-0.911	-2.191	1.521	-0.831	1.102	-0.722	-1.472	0.157	-1.192	-0.542	0.461	-0.433	0.494	0.470
this	0.985	-1.727	0.766	-1.033	-0.892	-2.976	-2.651	0.547	-0.874	0.826	1.196	0.327	-0.424	-0.264	-0.252	-0.861	-0.233	-2.125	-1.690	0.344
your	3.131	0.751	0.487	0.241	-0.789	-3.326	-2.136	0.187	0.060	-0.882	-1.213	-0.681	1.179	1.471	2.690	-0.297	0.614	-1.170	-2.403	0.812
<s>	0.255	-2.325	-3.486	1.768	1.782	0.589	-2.607	-2.588	1.007	0.453	-3.848	0.232	-3.060	-0.228	2.966	-0.928	-2.420	-0.006	-0.852	4.292
SUBJECT:	0.042	-2.309	-3.724	1.328	1.842	0.138	-2.594	-1.965	1.535	0.229	-3.184	0.164	-2.565	-0.010	2.964	-0.976	-2.495	0.153	-0.704	4.292
are	0.611	-1.851	1.915	-0.780	0.635	-3.241	1.672	-0.334	0.062	-0.798	1.319	-2.015	-0.291	1.124	-0.263	-0.900	-1.011	-1.929	1.199	-0.702
at	0.827	-1.684	-0.170	-0.293	1.229	-1.389	-0.849	0.587	0.156	-0.843	0.892	-3.433	-0.017	-1.304	-1.548	1.381	1.701	-2.723	-1.893	0.262
with	0.748	1.066	1.570	-0.355	-1.556	-1.828	-0.164	-1.757	0.171	-1.214	0.502	-0.897	-0.340	0.284	0.761	-0.250	0.430	-0.692	0.262	-1.686
n't	1.770	-0.890	1.879	0.353	-0.863	-2.656	-2.867	0.846	1.156	-1.655	3.339	0.418	-0.994	-0.086	-0.605	-1.651	2.036	-0.642	2.559	4.849
not	1.223	-0.760	2.877	-1.264	0.968	-3.529	-1.418	1.214	-0.663	1.383	2.397	0.649	0.371	0.787	-1.121	-0.387	0.028	-1.228	1.639	1.303
will	1.434	-1.888	0.225	-0.430	-0.614	-0.471	-1.593	-0.553	-1.013	-0.022	2.180	-0.685	0.341	0.323	0.626	1.780	3.847	-2.694	-0.370	-1.767
&CHAR	-1.305	-1.511	1.270	0.922	0.815	1.345	0.161	1.362	2.250	-0.626	-1.881	0.162	-3.535	2.539	-1.082	0.753	-2.200	1.989	-2.236	2.727
as	-0.092	0.399	2.075	-1.359	-0.196	-2.566	-1.663	0.215	-1.116	0.822	1.581	-0.392	0.485	-0.312	-0.527	0.976	1.091	-0.755	0.214	-0.630
we	-0.028	-2.191	2.343	1.122	-1.660	-1.422	-2.205	0.484	-1.355	-2.026	2.848	-0.942	-1.679	0.479	-2.335	0.865	3.060	-3.026	2.204	0.877
do	2.786	-1.326	2.337	0.677	-0.951	-1.414	-2.067	1.913	0.430	-0.800	3.065	-0.237	-1.254	0.967	-0.537	-1.059	1.141	-0.300	2.487	2.807
was	-1.894	2.678	1.331	-1.789	0.155	-3.019	-2.368	-3.241	-1.830	-0.350	1.868	0.186	-3.018	-2.149	-2.593	-1.451	-0.027	0.863	-1.077	1.513
my	0.424	2.987	0.746	-2.717	-0.006	-2.292	-2.002	-1.565	-1.744	-1.399	0.756	-2.938	-0.552	-2.337	1.590	0.121	0.956	-0.319	-0.243	2.154
from	1.297	-0.057	0.160	-2.107	-0.516	-0.824	0.029	0.010	-0.734	-0.871	-0.636	0.042	-0.229	-0.226	-0.631	0.528	0.297	-2.076	-1.435	0.332
...	0.788	-0.448	0.750	1.012	0.434	-1.137	-1.224	-0.989	2.716	-0.173	1.360	-1.109	-1.810	-0.669	-0.101	-1.711	-0.133	-0.386	0.244	3.144
*	4.617	-2.104	-5.174	0.062	-2.245	3.857	0.286	0.530	1.883	-1.229	0.948	1.777	-3.077	2.531	1.370	-1.008	1.154	1.403	-3.670	0.240
all	0.964	-0.722	1.733	0.705	-0.412	-1.235	-1.059	0.436	0.963	-1.074	1.791	-1.254	-1.846	-1.053	0.407	-1.446	0.032	-2.412	0.389	0.384
me	2.605	0.688	3.188	-0.272	0.782	-2.424	-2.499	0.035	-0.431	-1.110	3.263	-0.926	-1.457	2.006	0.531	-0.082	0.917	-1.611	-0.763	3.728
&WEBSITE	2.710	-2.039	-1.164	-2.255	1.730	0.167	0.664	4.568	5.283	0.955	-5.729	-0.143	1.772	0.695	0.556	0.168	-0.312	-1.007	-4.535	-0.780
or	1.389	-2.152	1.031	-0.499	0.468	-3.101	-0.901	2.157	-0.052	-1.389	0.406	1.027	1.857	2.958	-0.294	1.757	0.977	-1.111	-0.412	-0.504
but	-0.775	0.033	1.652	-1.275	-0.876	-2.830	-3.171	-0.160	-0.671	-0.638	2.992	-1.032	-1.477	-0.867	-0.677	-1.480	1.453	-0.171	2.400	1.968
so	0.216	-0.023	1.824	-1.217	-0.906	-2.463	-2.803	-0.189	-0.113	-2.103	3.261	-1.248	-1.478	-0.695	-0.315	-1.208	2.240	-1.344	0.617	1.186
if	2.122	-2.437	3.070	-0.072	0.549	-2.267	-3.828	1.225	-0.039	-1.956	3.671	-1.144	-1.258	2.792	-0.549	0.530	1.777	-1.781	0.609	2.658
The	-0.477	-0.086	-1.665	-0.493	-0.388	-0.196	0.252	-2.564	0.203	0.989	0.658	-0.326	0.153	0.782	-2.125	2.278	-0.255	-1.000	-0.458	-2.294
can	1.719	-1.752	1.336	1.055	-1.666	-2.996	-1.841	0.383	0.963	-1.655	1.337	-0.234	1.359	1.883	-0.450	0.572	3.232	-1.236	0.761	0.570
would	0.239	-0.268	3.374	-0.075	0.020	-1.645	-4.481	1.082	-0.793	0.550	2.434	-1.911	-1.669	2.050	-0.001	-0.125	1.767	-1.675	1.265	0.299
about	0.516	-0.235	0.789	-0.076	-1.150	-1.377	-2.275	-1.332	0.085	-0.294	2.393	-1.561	-2.284	-0.384	-0.967	-1.298	-0.735	-2.049	1.000	1.768
<QUOTE>	0.571	-1.163	1.307	0.974	2.042	1.125	-1.512	-0.543	3.234	2.235	1.453	-3.182	-3.493	-0.505	0.755	0.503	-3.346	-1.490	-1.147	6.710
<END_QUOTE>	3.637	1.277	2.141	1.735	2.702	0.918	0.576	1.794	4.161	2.141	0.675	-3.695	-1.938	1.066	-0.648	-0.213	-2.334	-2.423	-0.615	3.016
by	-0.994	0.587	0.190	-1.667	0.810	-0.732	-0.419	-0.463	-2.069	0.868	0.342	1.958	-0.473	0.809	-1.135	1.970	0.094	-1.034	-0.968	-1.199
'm	1.281	-0.948	1.880	-2.826	1.668	-3.117	-2.344	-0.340	-0.114	-0.761	2.060	-4.198	-1.763	-2.754	1.007	-2.891	0.269	0.260	1.738	3.451
know	3.308	-1.795	1.681	1.510	1.405	-1.601	-2.290	1.939	-0.588	-1.208	3.540	-0.811	-2.225	1.919	-0.511	-1.091	0.258	-1.801	1.009	2.782
an	-0.462	1.011	-0.453	-1.346	0.105	-2.965	-2.460	-0.889	-1.332	0.432	-0.106	0.160	0.740	-0.219	-0.832	1.267	-0.087	-1.085	-1.494	-0.988
up	0.950	0.107	1.499	0.682	-1.330	-1.927	-0.286	-1.353	-0.307	-1.967	0.686	-3.192	-1.284	-1.053	-1.646	-0.398	3.339	-0.421	-1.269	1.115
am	0.820	-0.517	1.056	-3.499	1.873	-3.409	-1.011	-0.607	-1.236	0.247	2.045	-3.330	-1.012	-2.665	1.512	-2.094	-1.135	0.044	0.580	1.380
time	0.608	0.857	-0.006	1.854	1.077	-3.058	-1.084	0.732	-0.628	-0.827	1.452	-1.886	-0.919	-1.167	-0.893	-1.713	2.342	-2.017	-0.169	0.012
just	-1.288	-1.190	1.537	-0.472	-0.918	-2.690	-1.786	0.570	0.871	-1.549	1.194	-0.041	-1.128	-0.903	0.136	-1.190	0.704	-0.415	0.430	3.009
like	1.429	-0.212	3.260	0.185	-0.182	-0.561	-2.815	0.233	0.749	0.002	0.236	-0.570	-2.621	0.223	-0.644	-1.488	0.845	-0.498	-0.069	1.840
/	0.171	-4.107	-0.990	-2.412	-0.354	1.397	0.297	2.184	2.498	2.815	-3.188	-3.620	-0.088	1.993	1.401	0.940	-1.415	-0.246	-1.102	0.368
You	3.113	-0.117	0.507	1.147	0.061	-2.726	-0.332	1.017	1.994	-0.666	-1.505	1.223	0.250	0.860	-0.055	-2.140	-0.398	-1.886	-0.145	2.598
Re	0.328	-2.221	-2.122	0.106	2.253	1.649	-4.547	-2.496	1.475	1.977	-2.261	-0.107	-3.442	-1.019	3.106	-0.564	-2.685	-1.023	0.988	6.586
out	1.006	-0.121	1.491	-1.908	-2.513	-1.602	-1.744	-0.766	-0.791	-2.106	0.923	-0.031	-0.463	-0.289	0.751	-0.171	3.072	-0.563	-0.178	1.108
get	1.189	-0.367	1.283	-0.305	-2.081	-2.042	-1.775	0.878	2.096	-2.233	0.979	-1.993	-0.242	0.415	0.470	-1.475	2.904	-1.688	0.109	1.577
It	-0.201	1.745	0.455	-0.176	-0.577	-2.634	-3.565	-2.279	1.671	0.518	0.395	-0.581	-0.202	-1.985	-0.070	-1.182	0.518	0.065	0.045	0.047
been	-1.003	2.642	-2.328	-1.680	0.355	-1.827	-2.791	-0.121	-1.588	-0.663	2.851	0.482	-2.595	-2.214	-0.841	-2.587	-0.918	-1.440	0.374	-0.219
there	-0.489	-0.593	2.005	-0.796	0.669	-2.341	-0.091	-0.977	-0.144	-0.881	3.220	-1.889	-1.022	0.223	-2.456	0.132	2.044	-0.888	0.853	0.925
our	0.499	-1.827	1.508	-0.355	-1.719	-2.375	-0.926	0.111	-1.391	-1.665	-3.189	2.208	0.886	-1.426	-0.074	1.071	0.823	-3.169	-0.370	-1.471
has	-0.247	3.596	-1.820	-0.845	-0.074	-1.950	-2.332	-0.843	-2.351	-0.932	2.503	1.930	-1.528	-0.497	-0.750	-1.145	0.149	-0.418	0.963	-0.804
If	3.352	-4.973	2.012	-0.767	-0.325	-3.078	-1.505	1.728	0.197	-0.759	1.806	0.299	0.353	2.380	-1.499	0.242	0.568	-1.624	-2.137	0.313
what	2.580	-0.253	2.103	1.778	-0.435	-2.303	-2.780	0.440	0.012	1.174	2.767	-0.840	-1.232	0.609	-2.068	-1.464	0.024	-0.616	3.211	2.248
had	-2.930	3.283	1.617	-1.256	0.236	-1.999	-2.453	-1.712	-1.987	-1.330	1.961	-1.558	-4.409	-2.665	-1.438	-1.932	0.666	-0.375	-1.087	1.645
some	-0.187	-0.263	1.784	-0.773	-0.151	-2.470	-1.942	0.432	0.047	-2.579	2.592	-2.737	-0.722	-1.197	-0.541	-0.191	0.149	-0.894	2.643	-0.820
good	0.528	0.930	1.952	0.678	0.794	-1.459	-3.508	-0.469	1.326	0.080	1.916	-3.116	-3.270	-1.636	-0.952	-2.830	0.182	-0.968	-0.109	-0.236
more	-0.417	-0.257	1.447	0.863	-4.308	-2.331	-0.302	1.754	1.779	0.980	1.332	-1.001	-0.304	-0.420	0.813	-2.732	2.266	-1.577	0.845	-0.898
very	-1.154	1.530	2.742	-0.502	-0.321	-3.682	-3.375	-1.973	0.298	-0.765	1.316	-2.143	-1.654	-2.017	2.291	-2.100	-0.178	-0.284	0.814	-0.263
think	0.698	-0.234	2.205	-0.732	-0.037	-1.339	-2.480	1.157	0.661	0.516	2.447	-2.511	-1.857	0.382	-2.313	-1.266	0.092	-0.400	2.645	3.266
'll	2.803	-2.482	1.137	0.182	-1.270	-0.385	-2.327	0.620	1.075	-2.007	0.864	-3.571	-0.878	-0.127	-0.041	-0.373	2.893	-2.064	1.073	3.071
he	2.461	4.695	1.652	-0.498	-0.950	-0.014	-3.731	-2.778	-3.783	-0.314	2.438	0.485	-4.175	1.106	-2.708	-1.230	0.855	0.932	2.372	1.633
going	1.704	-1.857	0.849	-1.638	1.823	-1.512	-1.852	-0.947	-0.666	-2.543	1.930	-2.877	-2.509	-2.097	-1.351	-2.084	1.837	-0.232	0.869	1.566
then	1.047	-1.722	2.144	-1.711	-0.654	-1.087	-1.311	0.379	0.496	-1.422	3.144	-2.256	-0.611	0.265	-2.321	1.083	3.944	-0.983	-0.536	1.442
We	0.948	-1.486	1.159	0.657	-0.978	-1.766	-0.845	-0.530	-0.598	-3.198	-0.104	-0.262	-0.440	0.244	0.050	0.328	1.694	-2.300	-0.333	-1.989
email	2.145	-2.057	0.909	-2.578	-0.006	-2.150	-2.110	2.979	-0.468	-1.114	0.259	2.434	-1.047	0.145	1.105	-0.284	-1.718	-3.654	-4.203	3.793
any	2.653	-2.269	1.296	-0.842	-0.442	-2.734	-0.964	3.348	-0.844	0.051	1.578	0.016	1.372	4.197	-0.039	0.971	-0.504	-1.474	0.843	0.083
see	2.863	-1.016	2.439	0.825	0.017	-0.816	-0.852	0.230	0.352	-1.164	1.968	-1.906	-1.202	-2.431	-0.395	0.167	1.079	-1.942	0.009	2.411
wrote	0.509	-1.741	1.990	0.541	2.805	1.339	-1.210	-0.396	3.833	3.268	1.781	-3.328	-3.851	-0.935	-0.001	0.515	-3.074	-1.163	-1.592	7.815
which	-1.791	1.339	0.692	-2.273	-0.891	-2.325	-1.808	-1.438	-1.295	-0.035	1.710	-1.522	0.316	-1.134	-0.757	1.452	1.100	-1.815	0.906	-2.073
well	1.473	0.508	1.725	-1.206	0.603	-1.386	-0.779	0.203	1.031	-0.531	1.690	-4.160	-2.406	-1.720	-0.129	-2.611	-1.797	0.180	0.728	-0.042
now	1.014	0.872	-1.255	-1.778	-0.254	-2.467	-0.968	0.295	0.995	-1.496	0.666	-2.337	0.031	-2.373	0.208	-2.331	1.254	-0.763	1.005	2.190
This	-0.053	0.451	-1.961	-0.681	0.579	-1.863	-1.126	-2.024	0.975	1.344	0.423	2.836	0.660	-0.395	-0.174	0.533	-1.217	-1.066	-1.812	-2.497
people	-0.785	0.046	3.349	-0.394	0.864	-2.382	-0.007	0.685	-0.283	-2.738	3.191	-0.036	-1.594	1.749	0.003	-0.206	0.642	-2.332	1.400	-0.617
who	0.984	0.332	2.514	-0.490	1.202	-1.785	-0.787	-0.835	-2.432	-3.828	2.637	2.498	-2.745	1.753	-1.853	-0.068	-0.949	-3.061	1.004	-2.283
&EMAIL	2.585	-2.066	0.861	-5.136	2.825	4.417	-0.226	2.157	2.644	3.516	0.814	0.892	-2.518	1.940	1.971	2.270	-1.511	-3.109	-4.892	3.012
please	3.908	-4.908	3.429	-1.544	0.285	-0.733	-1.821	2.689	0.839	-0.610	1.868	0.659	-0.458	1.939	1.175	2.202	0.149	-3.688	-4.760	0.794
they	-1.375	-0.696	3.999	-1.854	-2.884	-2.812	-0.117	-0.491	-2.311	-2.380	1.063	0.825	-1.167	1.547	-1.128	0.015	0.928	-1.738	3.764	1.690
really	0.256	0.984	2.844	0.343	-0.878	-2.387	-3.412	-0.401	0.958	-0.660	2.921	-1.213	-3.032	-2.565	-0.337	-2.912	-0.040	-0.097	1.088	1.827
when	1.978	0.655	2.021	-1.130	-2.487	-2.379	-0.450	-2.057	-0.627	-0.323	2.727	-1.319	-1.013	-0.326	-2.215	-0.968	3.158	-0.226	-0.662	2.391
go	2.229	-1.640	1.956	-1.106	-1.420	-0.363	-1.206	-0.777	1.554	-1.797	2.002	-2.573	-1.368	-2.164	-1.627	-0.745	3.442	-1.983	0.305	2.352
no	-0.186	-0.853	1.284	-0.893	-0.646	-3.154	-1.124	-0.239	0.426	2.114	0.999	0.637	1.369	0.338	1.118	-0.281	1.614	-1.603	1.709	1.984
've	-0.545	1.853	-0.989	-1.839	-0.525	-1.984	-3.056	0.561	0.183	-4.140	1.075	-0.702	-3.507	-1.298	-1.237	-3.476	-0.999	-0.849	0.639	3.412
could	-0.332	-0.517	2.919	0.390	-0.563	-2.644	-3.349	-0.574	0.273	-1.987	2.489	-1.408	-0.745	2.928	-1.011	1.204	2.402	-0.742	0.513	1.592
're	2.345	-2.954	3.137	-1.184	0.761	-2.475	0.133	-0.771	1.889	-3.463	3.047	-2.668	-2.438	-0.278	0.907	-2.851	-0.107	-0.737	1.059	1.721
them	0.990	1.112	3.767	-0.582	-2.028	-1.708	-0.673	1.115	-0.593	-3.516	1.545	-0.592	-0.685	1.790	-0.865	1.334	0.778	-2.343	0.732	1.177
much	-0.763	1.257	1.089	0.781	-1.345	-1.967	-2.447	1.934	1.083	0.193	2.049	-2.216	-2.646	-0.469	1.029	-4.278	1.594	0.211	1.391	0.256
us	1.879	-0.421	3.290	1.100	-0.749	-1.135	-1.064	-0.207	0.345	-1.713	2.015	0.986	-1.517	2.878	-1.257	-0.090	1.499	-3.471	0.549	-1.801
need	2.810	-1.854	-0.059	1.072	-2.284	-0.241	-1.888	1.983	0.790	-1.681	1.522	-1.436	-0.625	2.917	-0.238	-0.558	2.749	-1.900	1.874	1.480
want	3.100	-2.171	3.039	1.314	-0.542	-1.933	-2.170	2.185	0.454	-1.791	0.382	-0.991	-0.691	2.412	0.323	-0.781	1.553	-1.418	1.127	2.071
only	-2.696	-0.586	0.960	-1.363	-1.279	-3.462	-0.358	-1.043	0.647	0.630	1.897	1.324	0.107	0.536	-1.635	-0.695	1.913	-1.613	0.414	-0.149
one	-0.443	0.543	1.067	0.273	-0.359	-2.969	-1.014	0.549	-2.569	-1.294	-0.234	0.459	-1.115	-0.592	-2.413	-0.506	0.039	-1.048	0.561	0.754
did	0.285	0.738	2.571	-1.262	-0.834	-2.821	-1.855	-1.789	-1.037	-0.842	2.952	-0.905	-2.292	-1.806	-1.116	-1.292	0.204	0.678	1.042	4.767
hope	2.450	1.421	1.804	-0.763	1.658	-1.425	-1.927	1.533	0.965	-0.139	2.459	-4.727	-2.362	-1.341	2.072	-2.768	-0.480	-1.106	-0.567	0.769
day	-1.596	0.617	1.499	1.587	0.825	-3.023	-1.219	0.485	1.507	-1.425	1.282	-3.114	-2.736	-1.031	-2.992	-2.089	1.524	-0.342	-3.364	-0.588
his	3.003	7.356	1.440	0.296	0.489	-0.020	-2.576	-4.134	-4.879	0.035	1.040	0.007	-1.844	0.899	-1.619	1.905	2.519	0.725	2.020	-0.177
work	1.430	-1.085	-1.186	-0.923	-1.555	-1.526	-2.728	1.126	0.848	-1.400	3.771	-2.627	-1.334	-1.428	0.137	-2.262	0.491	0.803	0.688	-1.425
too	-0.035	1.139	1.912	-1.232	1.172	-2.530	-2.830	1.025	2.301	-0.489	2.157	-3.260	-1.702	0.302	0.627	-3.324	1.818	0.136	1.008	1.335
Hi	-0.401	-1.705	-1.601	-0.786	1.800	0.552	-3.197	-0.533	1.118	-0.165	-0.982	-2.735	-4.379	-0.155	2.354	-1.414	-3.426	-2.067	-1.816	5.377
$	-2.702	-2.623	-5.113	0.557	-0.353	-2.394	4.639	1.726	3.619	0.772	-3.127	3.267	-1.332	3.791	-0.164	-5.633	3.893	-1.782	-1.641	-0.685
here	1.705	-0.874	1.346	-2.033	-1.716	-2.816	-0.859	-0.379	2.616	0.485	-2.240	-1.058	0.687	-2.425	-0.874	-2.402	1.731	-0.722	-2.035	1.253
'	-0.113	0.453	-0.160	0.169	-3.169	-3.694	4.903	-0.760	2.314	1.826	-1.313	6.432	-0.604	3.020	-1.417	-3.268	-0.953	2.994	-4.464	0.792
how	1.053	0.562	0.789	2.214	-2.381	-2.789	-1.234	-0.318	0.491	-0.516	2.680	-1.181	0.165	0.602	0.004	0.245	-0.110	-0.663	1.989	2.387
back	1.427	-0.010	0.379	-1.433	0.498	-1.576	-0.040	-1.311	-0.777	-1.594	1.587	-3.653	-2.558	-1.160	-0.933	-2.073	3.256	0.093	-2.360	2.420
other	-1.688	-0.735	3.324	-1.086	-0.604	-2.194	0.023	1.261	-0.390	-0.045	1.876	-1.520	-0.953	1.402	-1.533	0.170	0.107	-1.450	1.106	-2.737
week	-0.667	-1.349	-2.119	-0.343	1.086	-1.868	-1.435	-0.255	-1.194	-1.209	2.760	-4.316	-3.213	-2.351	-2.293	-2.482	2.076	-2.209	-1.769	-0.360
come	3.728	-3.140	2.943	1.213	1.616	-0.318	-1.362	-0.508	-0.837	-2.628	2.295	-1.454	-2.569	0.240	-0.031	-0.156	2.525	-3.254	0.622	1.802
Dear	-1.035	-2.047	-1.185	1.125	3.657	0.352	-2.632	0.022	-0.391	1.499	0.516	-1.362	-3.636	-0.908	3.209	0.741	-3.591	-3.372	-2.652	3.889
also	-0.276	0.395	1.322	-1.133	-1.815	0.088	-3.836	-0.564	-0.693	-2.307	0.883	-0.627	-1.776	0.102	-0.996	1.010	1.038	-2.232	0.651	-2.382
Do	5.030	-0.044	-0.656	2.566	0.124	-1.806	-0.716	1.556	2.873	-1.756	-0.437	-2.220	-0.027	2.288	0.536	-2.137	0.497	-0.540	0.979	4.062
should	0.406	0.176	1.329	-0.003	-0.189	-0.863	-2.104	1.412	-0.191	0.583	2.478	-0.951	-0.650	1.279	-1.132	0.671	1.417	-3.325	0.738	-0.032
love	3.260	3.218	3.624	1.258	-0.396	2.788	-0.052	2.773	3.887	-0.613	1.154	-2.784	-4.057	-3.098	1.509	-1.566	-1.520	-2.315	-0.412	3.318
may	1.440	-0.484	2.754	-0.010	-0.165	-4.050	-2.712	2.290	-2.100	0.141	0.396	1.302	0.849	1.568	-0.138	0.742	-0.926	-0.613	-0.026	-0.687
take	-0.192	-0.158	1.430	0.497	0.031	-1.729	-1.150	2.900	0.576	-1.191	1.911	0.926	1.337	-2.575	-0.525	2.750	3.482	-1.637	-0.915	0.638
were	-2.448	1.574	2.920	-1.955	-0.385	-2.540	0.179	-1.907	-3.871	-1.620	1.771	-0.622	-3.088	-0.464	-2.790	0.044	-0.774	-1.396	2.256	2.036
make	0.757	-2.435	1.359	1.132	-0.565	-2.013	-1.801	0.486	0.069	-0.920	1.786	1.179	0.555	1.042	1.103	0.151	3.527	-1.607	2.857	1.012
;	-1.405	-0.255	2.602	-0.093	-2.063	2.760	1.724	-0.655	-0.864	3.294	1.039	-0.569	-2.208	1.134	0.257	3.076	-0.170	0.188	0.079	0.147
e-mail	2.065	0.205	0.539	-3.148	1.725	-3.465	-2.187	1.986	-0.269	0.196	0.787	0.849	0.850	0.813	0.871	1.319	-2.047	-3.120	-4.846	3.742
last	-2.150	0.481	-0.290	0.902	0.385	-2.921	-1.317	-2.337	-2.914	-0.820	2.431	-2.323	-4.535	-2.109	-1.867	-2.039	0.419	-1.365	-3.291	1.078
next	0.705	-1.983	-1.120	-0.705	0.433	-2.564	-1.260	-0.117	-2.054	-0.148	1.145	-4.553	-0.863	-2.064	-1.458	-0.776	2.738	-3.093	-1.354	0.359
her	2.681	3.915	2.784	-0.913	0.359	-2.106	-0.799	-3.357	-0.467	-4.642	4.522	2.326	-2.892	-1.151	-0.761	-0.792	0.553	1.208	-1.326	1.510
say	0.179	-0.335	3.802	1.627	0.416	-2.185	-1.103	1.057	-0.371	2.475	3.133	0.598	-1.538	-2.600	0.029	-0.370	-0.407	-0.573	2.807	4.791
University	-0.182	0.541	-3.854	-2.486	3.173	4.127	0.965	2.036	-0.487	1.596	0.512	-3.090	-3.058	0.873	-0.385	3.286	-4.489	-3.619	-0.653	-1.122
got	-0.657	2.122	-0.433	-2.679	0.257	-2.238	-1.201	-0.510	-0.193	-3.604	-0.141	-2.295	-2.716	-1.095	-0.892	-2.756	0.208	0.277	-0.661	3.874
than	-1.875	-0.557	1.712	-1.565	-3.792	-2.071	0.714	2.502	1.488	2.747	2.492	-1.380	-0.568	0.242	-0.265	-3.430	3.799	0.644	1.968	-0.796
she	3.206	4.006	2.403	-0.428	-0.031	-1.597	-1.760	-3.273	-0.704	-4.512	5.016	3.133	-3.674	-0.534	-2.606	-1.102	-0.118	1.438	0.622	2.599
year	-0.000	-0.839	-3.289	-1.203	1.340	-3.156	-0.739	0.143	-2.960	-0.058	0.984	-3.813	-1.761	-0.753	-2.227	-3.407	0.100	-3.375	1.449	-0.819
him	3.406	5.488	4.869	1.670	-1.119	0.357	-4.916	-0.665	-4.403	-0.515	-0.249	0.449	-4.541	0.762	-3.551	0.729	-0.600	-1.022	1.472	2.303
great	0.127	0.785	1.887	1.570	0.647	-1.487	-2.801	-1.091	1.015	-1.034	-1.668	-2.185	-3.006	-1.923	-0.704	-2.887	-0.070	-2.066	-0.344	-1.145
[	0.231	-4.812	3.069	-0.421	-1.248	2.221	1.743	-2.169	-1.163	4.992	-5.300	1.616	-5.155	0.863	0.511	-1.803	-3.631	-1.549	0.549	0.561
before	-0.623	-1.041	0.408	-0.268	-0.748	-1.654	-1.358	-0.733	-1.147	-2.208	3.118	-2.071	-1.252	-0.443	-0.705	0.982	3.557	-2.173	-0.714	1.838
]	-0.200	-4.710	2.818	-0.180	-1.362	1.887	1.676	-2.600	-1.264	3.665	-3.144	1.791	-5.374	1.723	0.442	-1.466	-3.998	-1.358	0.070	0.672
way	0.982	0.714	3.308	-1.041	-1.369	-2.591	-1.861	0.595	1.487	0.420	0.278	0.121	0.374	0.205	-2.241	-0.662	0.678	-0.797	0.611	-0.177
&pound;	-3.825	-3.934	-1.527	-3.045	1.264	2.838	-0.956	1.860	0.946	2.296	-0.758	-1.691	-5.525	7.597	-1.043	-2.930	3.647	-2.683	-1.083	-1.452
does	2.430	-1.023	2.016	-0.253	-0.489	-2.360	-1.152	-0.567	1.068	2.870	3.746	1.758	0.049	2.516	-2.165	-0.886	-0.328	0.005	4.022	2.204
To	1.896	-3.066	0.064	-1.670	-1.606	2.104	1.565	-0.089	3.511	2.534	-2.134	3.643	-0.512	-2.005	1.775	-0.238	1.636	-3.394	-2.724	1.510
again	1.862	0.288	1.916	1.118	-0.363	-2.102	-1.279	0.632	0.433	-1.376	2.451	-1.577	-1.221	-3.719	0.649	-0.041	1.364	-1.687	-2.847	3.968
today	0.000	0.860	-0.453	-2.118	-1.045	-1.911	-2.882	-1.026	1.299	-0.422	-0.105	-2.618	-1.186	-1.927	1.176	-2.337	1.278	-0.257	-2.489	0.479
let	4.201	-4.028	2.697	2.113	1.746	-0.402	-1.928	2.607	-0.317	-1.587	4.492	-1.063	-2.693	2.782	1.093	0.460	0.611	-2.215	-1.275	2.409
being	-0.086	1.529	3.122	-2.985	1.380	-2.787	-1.478	0.200	-1.274	0.864	2.195	-0.018	-0.703	-1.077	0.915	-0.902	-0.022	-0.388	0.575	-0.611
message	2.478	-0.232	-0.576	-1.916	2.071	-2.017	-2.658	0.512	-0.027	0.899	0.044	4.161	-0.880	-0.140	-0.587	0.956	-4.193	-1.462	-6.146	1.430
their	-0.886	-0.530	2.796	-2.320	-1.395	-2.923	2.401	-0.619	-2.762	-3.226	0.423	1.228	1.562	0.606	-0.470	2.835	0.736	-1.528	3.415	-3.650
Thanks	1.509	0.691	0.711	0.327	1.747	-0.444	-4.084	0.630	1.029	-0.743	0.249	-2.632	-3.051	1.199	3.275	-0.754	-1.777	-2.445	-3.174	2.572
still	2.007	-0.308	-0.159	-1.324	-0.009	-2.231	-1.312	-2.005	-2.134	-1.038	2.822	-2.790	-2.621	0.554	-0.306	-2.856	0.361	0.347	0.922	0.752
send	1.738	-1.381	2.318	-1.716	-0.696	-1.704	-1.513	2.357	0.025	-0.099	1.392	0.792	-0.059	2.893	2.544	1.513	1.129	-3.876	-4.791	2.786
So	0.443	-0.540	1.148	0.098	0.693	-2.758	-1.862	-0.173	-0.201	-1.068	2.562	-1.252	-0.930	0.649	-1.325	-0.732	1.909	-1.514	0.351	1.231
after	-1.609	-1.411	0.278	-0.187	-0.315	-2.621	-1.199	-1.641	-1.726	-1.950	3.703	-3.997	-1.823	-1.403	-1.793	1.035	2.979	-1.568	-1.950	1.647
because	-0.022	-1.882	2.903	-0.696	-2.420	-3.390	-0.214	0.291	-1.774	-1.315	1.395	1.641	-1.192	-0.824	-1.635	-1.137	-0.295	-2.317	1.528	1.349
things	-0.243	-0.671	3.199	0.739	-1.358	-1.900	-0.565	0.272	1.794	-1.527	3.263	-1.057	-2.428	-1.946	-0.932	-2.514	-0.338	-1.223	3.541	-0.145
over	-1.455	0.880	-0.904	-0.402	-2.092	-2.719	1.761	-0.510	-0.391	-0.419	0.581	-1.708	-0.881	-0.446	-0.900	-2.850	3.210	-1.559	-0.321	-1.765
College	1.806	1.198	-1.858	-0.200	3.859	5.009	1.781	-0.038	0.804	0.117	2.070	-0.990	-4.243	-0.001	-1.931	3.148	-2.248	-3.498	-3.043	-1.547
home	2.313	1.259	-0.738	-1.343	1.611	-2.882	-1.092	-0.254	-0.226	-3.767	0.049	-2.674	-1.024	-1.614	0.776	-3.389	3.847	-0.024	-1.169	-0.323
evening	-0.457	-4.002	4.049	0.649	6.907	-0.904	-3.827	-0.037	-0.798	-0.422	0.078	-3.678	-3.857	-2.242	-1.128	1.005	2.918	1.140	-1.920	0.013
Please	2.162	-3.378	2.965	0.023	1.088	-1.422	-1.530	1.285	-1.483	0.150	1.981	0.752	-0.733	2.339	3.834	2.627	0.771	-3.088	-4.812	0.770
Your	4.552	1.672	-2.518	2.339	0.710	-0.435	-1.880	-0.060	1.491	2.061	-4.211	3.207	1.062	-0.747	2.043	-0.500	2.643	-1.799	-3.362	1.397
new	1.592	0.464	-2.180	-1.835	-1.985	-1.948	0.232	-1.030	-0.006	-3.237	-1.394	-3.129	0.045	1.521	2.542	-1.103	-1.566	-1.065	-0.201	-0.872
address	5.184	1.563	-0.351	-2.911	1.465	-1.135	-0.868	3.438	-0.324	-2.995	-1.943	1.101	0.899	2.435	0.216	2.189	-2.203	-2.565	-3.623	4.500
first	-1.163	-0.849	-2.270	-0.863	-0.513	-2.462	0.344	-1.992	-1.736	0.945	1.501	-1.903	-0.162	-1.564	-1.701	-0.184	1.860	-2.055	-0.305	0.079
into	0.420	1.409	0.125	-2.680	-4.270	-1.948	0.840	-2.856	-1.916	-1.075	0.382	-2.186	-0.227	1.001	-0.963	-0.325	3.058	0.726	-0.300	0.275
list	2.688	-3.201	2.772	-5.520	2.485	-0.021	0.111	5.555	1.609	-3.607	0.207	4.359	-0.832	-1.170	-2.040	1.208	-0.231	-3.176	-4.019	1.746
look	3.014	-1.187	3.003	1.740	-1.313	-1.411	-2.496	3.869	-0.685	1.867	-0.088	-4.940	-1.274	-2.847	-2.991	0.887	-1.446	-0.836	-2.598	1.389
most	-1.516	-0.322	1.968	-0.330	0.467	-3.889	0.574	-0.082	0.539	0.158	0.755	-0.609	-0.081	-1.016	-0.812	-1.778	0.468	-0.220	1.047	-3.380
night	-0.621	2.175	1.862	2.335	3.057	0.084	-2.522	-1.860	-2.135	-2.772	2.182	-3.065	-6.395	0.167	-3.873	-0.383	3.295	0.881	-3.400	0.861
might	1.330	-0.325	3.174	-0.650	-0.369	-1.566	-5.059	0.171	-1.384	0.332	0.569	-3.201	-1.492	1.264	-1.813	0.307	0.056	-1.493	2.724	1.588
soon	3.222	0.732	2.068	0.974	1.029	0.577	-0.468	1.440	1.482	0.520	1.597	-4.959	-1.961	-0.644	2.437	0.286	-0.065	-3.482	-2.212	2.263
'd	-0.207	-0.805	4.488	-0.880	-0.322	-0.786	-5.565	0.958	-0.096	-1.884	1.823	-1.241	-4.060	-0.186	-0.289	-0.359	0.237	-0.792	-1.541	2.331
Well	0.573	1.451	2.108	0.028	1.700	-3.184	-1.193	0.066	-0.304	1.221	2.040	-3.345	-1.860	-1.782	0.139	-2.509	0.461	0.007	0.481	3.198
room	0.135	1.522	0.388	-1.226	2.849	-0.188	-2.021	-1.586	-2.856	-2.500	-0.993	-3.568	-0.345	-1.688	-3.675	4.441	3.654	-0.032	0.885	2.568
quite	-2.368	2.986	2.017	-2.535	-0.263	-4.459	-4.003	-1.368	1.011	0.486	2.318	-2.683	-1.801	-3.375	-1.060	-3.061	-0.853	1.218	1.043	-0.000
off	-0.586	-1.900	0.271	-3.611	-1.891	-1.311	0.500	-0.783	0.564	-2.145	-0.224	-2.236	-0.690	-3.021	-0.006	-1.128	4.856	0.689	-2.418	1.965
What	2.102	-0.130	1.079	1.433	1.409	-2.038	-0.541	-2.743	-0.133	2.592	0.622	-2.600	-1.777	1.400	-0.854	-1.661	-1.917	1.361	1.591	2.749
Get	5.452	2.732	-1.638	1.724	0.601	-0.905	2.028	2.671	4.970	-0.691	-3.827	-2.068	0.632	-0.284	0.140	-2.939	1.316	-0.977	-1.803	2.935
even	-0.540	-0.993	1.639	1.277	-2.126	-3.848	-1.762	-1.623	-0.062	-1.969	1.563	1.763	-0.855	-0.899	-1.873	-1.989	2.534	0.701	2.244	0.170
&	0.112	-1.091	-2.051	2.838	-1.500	4.163	1.581	1.347	4.611	-2.608	-1.075	0.905	-2.285	0.958	-0.778	2.162	-1.613	-2.608	-0.410	-0.270
All	0.524	-3.021	-1.631	2.230	1.055	-1.004	0.648	0.532	2.268	0.520	0.176	-0.476	1.695	-0.028	1.150	2.935	-0.399	-3.046	-0.846	-0.150
doing	0.672	-2.065	-0.432	-1.576	0.798	-1.971	-2.179	1.206	0.198	-2.350	2.739	-4.146	-2.313	-1.002	0.025	-3.033	-1.720	1.327	3.989	-0.095
information	2.930	-1.581	-1.278	0.860	-2.780	-1.255	-2.913	6.660	0.244	3.162	0.256	2.961	2.679	-0.108	-0.899	3.151	-0.965	-4.008	-3.907	-4.228
sent	1.818	1.730	-0.606	-2.491	1.597	-1.616	-1.853	0.130	-1.654	-0.759	0.707	4.600	-2.156	-0.617	-0.527	-0.162	-3.704	-2.156	-4.501	2.566
forward	6.401	-3.090	3.762	1.298	0.048	-2.124	-1.094	1.256	-1.675	0.725	1.030	-6.340	-1.949	-2.168	0.655	0.025	-1.998	-0.718	-4.881	-0.148
How	3.693	1.019	-1.057	1.072	2.193	-1.352	0.617	-3.298	-0.741	0.218	0.733	-3.249	-2.448	1.371	1.480	-3.092	-1.254	1.999	1.636	2.705
As	-1.464	0.691	0.435	0.764	1.091	-3.205	-2.673	-0.814	-1.270	1.410	0.194	0.382	-0.530	-1.690	-2.940	0.646	-1.068	-0.567	-0.115	0.748
these	0.898	-2.841	2.076	0.851	-3.855	-3.606	2.566	1.672	-1.244	-1.285	3.437	0.058	0.152	0.594	1.196	0.305	-2.375	-0.858	1.419	0.071
And	1.442	0.399	2.582	1.511	-0.429	-1.185	-0.647	-1.174	1.106	0.625	1.236	0.629	-0.706	0.834	0.058	-0.562	1.517	0.742	2.449	2.489
FREE	1.215	-1.630	-0.680	2.989	-0.977	-1.782	3.790	2.609	9.019	-1.067	-3.810	1.022	0.945	0.490	2.021	-2.892	1.898	-2.500	-3.522	-1.354
He	1.901	6.321	2.473	-1.992	-1.145	1.178	-2.226	-4.879	-3.345	0.838	1.183	1.188	-4.427	0.121	-2.703	-0.885	0.583	1.196	0.719	-1.541
sure	2.365	-1.799	1.635	-1.321	0.930	-1.359	-2.550	1.828	-0.669	-0.514	0.563	-1.371	-1.603	0.216	0.190	-2.729	0.738	1.022	3.896	2.384
few	-4.226	1.917	-0.214	0.025	-0.983	-5.014	0.766	0.921	0.524	-3.637	3.027	-0.750	-2.881	-1.212	0.248	-4.067	0.345	-3.410	-2.039	-0.180
find	1.748	-0.740	1.025	-0.128	-3.494	-2.082	-1.871	0.294	1.077	-2.133	0.538	-2.195	1.792	-0.644	-0.654	1.926	1.239	-0.538	1.290	1.321
use	3.057	-0.574	-0.115	-0.598	-2.662	-1.820	-0.230	1.442	2.069	-1.713	2.605	-0.237	1.880	2.804	-0.058	2.019	0.012	1.390	-2.017	-1.049
nice	-1.388	1.202	3.505	0.875	3.070	-1.785	-1.940	-0.813	2.959	-0.863	0.335	-3.168	-3.490	-1.433	-1.485	-2.367	0.623	-1.742	-0.516	1.212
said	-0.375	2.476	3.983	-1.559	-0.995	-0.627	-2.471	-1.260	-1.864	-1.314	2.102	1.252	-4.523	0.382	-3.984	-0.232	-1.286	-0.380	0.821	4.077
something	0.611	-0.502	4.364	-0.452	-0.898	-1.836	-4.456	0.354	0.825	-0.256	1.724	-0.129	-1.146	-0.330	-2.084	0.623	0.555	1.773	1.437	2.930